data_MgO-\(1\1\1)-O-t-rebuild
_audit_creation_date              2025-07-06
_audit_creation_method            'Materials Studio'
_symmetry_space_group_name_H-M    'P1'
_symmetry_Int_Tables_number       1
_symmetry_cell_setting            triclinic
loop_
_symmetry_equiv_pos_as_xyz
  x,y,z
_cell_length_a                    11.9111
_cell_length_b                    11.9111
_cell_length_c                    25.9410
_cell_angle_alpha                 90.0000
_cell_angle_beta                  90.0000
_cell_angle_gamma                 120.0000
loop_
_atom_site_label
_atom_site_type_symbol
_atom_site_fract_x
_atom_site_fract_y
_atom_site_fract_z
_atom_site_U_iso_or_equiv
_atom_site_adp_type
_atom_site_occupancy
Mg1    Mg    0.11667   0.11667   0.04686   0.00000  Uiso   1.00
Mg2    Mg    0.11667   0.11667   0.32804   0.00000  Uiso   1.00
Mg3    Mg    0.20000   0.03333   0.14059   0.00000  Uiso   1.00
Mg4    Mg    0.03333   0.20000   0.23431   0.00000  Uiso   1.00
O5     O     0.11667   0.11667   0.18745   0.00000  Uiso   1.00
O6     O     0.20000   0.03333  -0.00000   0.00000  Uiso   1.00
O7     O     0.03333   0.20000   0.09373   0.00000  Uiso   1.00
O8     O     0.20000   0.03333   0.28118   0.00000  Uiso   1.00
Mg9    Mg    0.36667   0.11667   0.04686   0.00000  Uiso   1.00
Mg10   Mg    0.36667   0.11667   0.32804   0.00000  Uiso   1.00
Mg11   Mg    0.45000   0.03333   0.14059   0.00000  Uiso   1.00
Mg12   Mg    0.28333   0.20000   0.23431   0.00000  Uiso   1.00
O13    O     0.36667   0.11667   0.18745   0.00000  Uiso   1.00
O14    O     0.45000   0.03333  -0.00000   0.00000  Uiso   1.00
O15    O     0.28333   0.20000   0.09373   0.00000  Uiso   1.00
O16    O     0.45000   0.03333   0.28118   0.00000  Uiso   1.00
Mg17   Mg    0.61667   0.11667   0.04686   0.00000  Uiso   1.00
Mg18   Mg    0.61667   0.11667   0.32804   0.00000  Uiso   1.00
Mg19   Mg    0.70000   0.03333   0.14059   0.00000  Uiso   1.00
Mg20   Mg    0.53333   0.20000   0.23431   0.00000  Uiso   1.00
O21    O     0.61667   0.11667   0.18745   0.00000  Uiso   1.00
O22    O     0.70000   0.03333  -0.00000   0.00000  Uiso   1.00
O23    O     0.53333   0.20000   0.09373   0.00000  Uiso   1.00
O24    O     0.70000   0.03333   0.28118   0.00000  Uiso   1.00
Mg25   Mg    0.86667   0.11667   0.04686   0.00000  Uiso   1.00
Mg26   Mg    0.86667   0.11667   0.32804   0.00000  Uiso   1.00
Mg27   Mg    0.95000   0.03333   0.14059   0.00000  Uiso   1.00
Mg28   Mg    0.78333   0.20000   0.23431   0.00000  Uiso   1.00
O29    O     0.86667   0.11667   0.18745   0.00000  Uiso   1.00
O30    O     0.95000   0.03333  -0.00000   0.00000  Uiso   1.00
O31    O     0.78333   0.20000   0.09373   0.00000  Uiso   1.00
O32    O     0.95000   0.03333   0.28118   0.00000  Uiso   1.00
Mg33   Mg    0.11667   0.36667   0.04686   0.00000  Uiso   1.00
Mg34   Mg    0.11667   0.36667   0.32804   0.00000  Uiso   1.00
Mg35   Mg    0.20000   0.28333   0.14059   0.00000  Uiso   1.00
Mg36   Mg    0.03333   0.45000   0.23431   0.00000  Uiso   1.00
O37    O     0.11667   0.36667   0.18745   0.00000  Uiso   1.00
O38    O     0.03333   0.45000   0.09373   0.00000  Uiso   1.00
O39    O     0.20000   0.28333   0.28118   0.00000  Uiso   1.00
O40    O     0.03333   0.45000   0.37490   0.00000  Uiso   1.00
Mg41   Mg    0.36667   0.36667   0.04686   0.00000  Uiso   1.00
Mg42   Mg    0.36667   0.36667   0.32804   0.00000  Uiso   1.00
Mg43   Mg    0.45000   0.28333   0.14059   0.00000  Uiso   1.00
Mg44   Mg    0.28333   0.45000   0.23431   0.00000  Uiso   1.00
O45    O     0.36667   0.36667   0.18745   0.00000  Uiso   1.00
O46    O     0.28333   0.45000   0.09373   0.00000  Uiso   1.00
O47    O     0.45000   0.28333   0.28118   0.00000  Uiso   1.00
O48    O     0.28333   0.45000   0.37490   0.00000  Uiso   1.00
Mg49   Mg    0.61667   0.36667   0.04686   0.00000  Uiso   1.00
Mg50   Mg    0.61667   0.36667   0.32804   0.00000  Uiso   1.00
Mg51   Mg    0.70000   0.28333   0.14059   0.00000  Uiso   1.00
Mg52   Mg    0.53333   0.45000   0.23431   0.00000  Uiso   1.00
O53    O     0.61667   0.36667   0.18745   0.00000  Uiso   1.00
O54    O     0.53333   0.45000   0.09373   0.00000  Uiso   1.00
O55    O     0.70000   0.28333   0.28118   0.00000  Uiso   1.00
O56    O     0.53333   0.45000   0.37490   0.00000  Uiso   1.00
Mg57   Mg    0.86667   0.36667   0.04686   0.00000  Uiso   1.00
Mg58   Mg    0.86667   0.36667   0.32804   0.00000  Uiso   1.00
Mg59   Mg    0.95000   0.28333   0.14059   0.00000  Uiso   1.00
Mg60   Mg    0.78333   0.45000   0.23431   0.00000  Uiso   1.00
O61    O     0.86667   0.36667   0.18745   0.00000  Uiso   1.00
O62    O     0.78333   0.45000   0.09373   0.00000  Uiso   1.00
O63    O     0.95000   0.28333   0.28118   0.00000  Uiso   1.00
O64    O     0.78525   0.45383   0.37709   0.00000  Uiso   1.00
Mg65   Mg    0.11667   0.61667   0.04686   0.00000  Uiso   1.00
Mg66   Mg    0.11667   0.61667   0.32804   0.00000  Uiso   1.00
Mg67   Mg    0.20000   0.53333   0.14059   0.00000  Uiso   1.00
Mg68   Mg    0.03333   0.70000   0.23431   0.00000  Uiso   1.00
O69    O     0.11667   0.61667   0.18745   0.00000  Uiso   1.00
O70    O     0.20000   0.53333  -0.00000   0.00000  Uiso   1.00
O71    O     0.03333   0.70000   0.09373   0.00000  Uiso   1.00
O72    O     0.20000   0.53333   0.28118   0.00000  Uiso   1.00
Mg73   Mg    0.36667   0.61667   0.04686   0.00000  Uiso   1.00
Mg74   Mg    0.36667   0.61667   0.32804   0.00000  Uiso   1.00
Mg75   Mg    0.45000   0.53333   0.14059   0.00000  Uiso   1.00
Mg76   Mg    0.28333   0.70000   0.23431   0.00000  Uiso   1.00
O77    O     0.36667   0.61667   0.18745   0.00000  Uiso   1.00
O78    O     0.45000   0.53333  -0.00000   0.00000  Uiso   1.00
O79    O     0.28333   0.70000   0.09373   0.00000  Uiso   1.00
O80    O     0.45000   0.53333   0.28118   0.00000  Uiso   1.00
Mg81   Mg    0.61667   0.61667   0.04686   0.00000  Uiso   1.00
Mg82   Mg    0.61667   0.61667   0.32804   0.00000  Uiso   1.00
Mg83   Mg    0.70000   0.53333   0.14059   0.00000  Uiso   1.00
Mg84   Mg    0.53333   0.70000   0.23431   0.00000  Uiso   1.00
O85    O     0.61667   0.61667   0.18745   0.00000  Uiso   1.00
O86    O     0.70000   0.53333  -0.00000   0.00000  Uiso   1.00
O87    O     0.53333   0.70000   0.09373   0.00000  Uiso   1.00
O88    O     0.70000   0.53333   0.28118   0.00000  Uiso   1.00
Mg89   Mg    0.86667   0.61667   0.04686   0.00000  Uiso   1.00
Mg90   Mg    0.86667   0.61667   0.32804   0.00000  Uiso   1.00
Mg91   Mg    0.95000   0.53333   0.14059   0.00000  Uiso   1.00
Mg92   Mg    0.78333   0.70000   0.23431   0.00000  Uiso   1.00
O93    O     0.86667   0.61667   0.18745   0.00000  Uiso   1.00
O94    O     0.95000   0.53333  -0.00000   0.00000  Uiso   1.00
O95    O     0.78333   0.70000   0.09373   0.00000  Uiso   1.00
O96    O     0.95000   0.53333   0.28118   0.00000  Uiso   1.00
Mg97   Mg    0.11667   0.86667   0.04686   0.00000  Uiso   1.00
Mg98   Mg    0.11667   0.86667   0.32804   0.00000  Uiso   1.00
Mg99   Mg    0.20000   0.78333   0.14059   0.00000  Uiso   1.00
Mg100  Mg    0.03333   0.95000   0.23431   0.00000  Uiso   1.00
O101   O     0.11667   0.86667   0.18745   0.00000  Uiso   1.00
O102   O     0.03333   0.95000   0.09373   0.00000  Uiso   1.00
O103   O     0.20000   0.78333   0.28118   0.00000  Uiso   1.00
O104   O     0.03333   0.95000   0.37490   0.00000  Uiso   1.00
Mg105  Mg    0.36667   0.86667   0.04686   0.00000  Uiso   1.00
Mg106  Mg    0.36667   0.86667   0.32804   0.00000  Uiso   1.00
Mg107  Mg    0.45000   0.78333   0.14059   0.00000  Uiso   1.00
Mg108  Mg    0.28333   0.95000   0.23431   0.00000  Uiso   1.00
O109   O     0.36667   0.86667   0.18745   0.00000  Uiso   1.00
O110   O     0.28333   0.95000   0.09373   0.00000  Uiso   1.00
O111   O     0.45000   0.78333   0.28118   0.00000  Uiso   1.00
O112   O     0.28333   0.95000   0.37490   0.00000  Uiso   1.00
Mg113  Mg    0.61667   0.86667   0.04686   0.00000  Uiso   1.00
Mg114  Mg    0.61667   0.86667   0.32804   0.00000  Uiso   1.00
Mg115  Mg    0.70000   0.78333   0.14059   0.00000  Uiso   1.00
Mg116  Mg    0.53333   0.95000   0.23431   0.00000  Uiso   1.00
O117   O     0.61667   0.86667   0.18745   0.00000  Uiso   1.00
O118   O     0.53333   0.95000   0.09373   0.00000  Uiso   1.00
O119   O     0.70000   0.78333   0.28118   0.00000  Uiso   1.00
O120   O     0.53333   0.95000   0.37490   0.00000  Uiso   1.00
Mg121  Mg    0.86667   0.86667   0.04686   0.00000  Uiso   1.00
Mg122  Mg    0.86667   0.86667   0.32804   0.00000  Uiso   1.00
Mg123  Mg    0.95000   0.78333   0.14059   0.00000  Uiso   1.00
Mg124  Mg    0.78333   0.95000   0.23431   0.00000  Uiso   1.00
O125   O     0.86667   0.86667   0.18745   0.00000  Uiso   1.00
O126   O     0.78333   0.95000   0.09373   0.00000  Uiso   1.00
O127   O     0.95000   0.78333   0.28118   0.00000  Uiso   1.00
O128   O     0.78333   0.95000   0.37490   0.00000  Uiso   1.00
loop_
_geom_bond_atom_site_label_1
_geom_bond_atom_site_label_2
_geom_bond_distance
_geom_bond_site_symmetry_2
_ccdc_geom_bond_type
Mg1    O15     2.106   .     S
Mg1    O30     2.106   1_455 S
Mg1    O7      2.106   .     S
Mg1    O6      2.106   .     S
Mg1    O102    2.106   1_545 S
Mg1    Mg3     2.978   .     S
Mg1    Mg9     2.978   .     S
Mg1    Mg25    2.978   1_455 S
Mg1    Mg27    2.978   1_455 S
Mg1    Mg33    2.978   .     S
Mg1    Mg35    2.978   .     S
Mg1    Mg41    2.978   .     S
Mg1    Mg97    2.978   1_545 S
Mg1    Mg121   2.978   1_445 S
Mg2    O32     2.106   1_455 S
Mg2    O8      2.106   .     S
Mg2    O104    2.106   1_545 S
Mg2    O39     2.106   .     S
Mg2    Mg4     2.978   .     S
Mg2    Mg10    2.978   .     S
Mg2    Mg12    2.978   .     S
Mg2    Mg26    2.978   1_455 S
Mg2    Mg34    2.978   .     S
Mg2    Mg42    2.978   .     S
Mg2    Mg98    2.978   1_545 S
Mg2    Mg100   2.978   1_545 S
Mg2    Mg122   2.978   1_445 S
Mg3    O13     2.106   .     S
Mg3    O102    2.106   1_545 S
Mg3    O5      2.106   .     S
Mg3    O110    2.106   1_545 S
Mg3    O101    2.106   1_545 S
Mg3    O15     2.106   .     S
Mg3    Mg9     2.978   .     S
Mg3    Mg11    2.978   .     S
Mg3    Mg12    2.978   .     S
Mg3    Mg27    2.978   1_455 S
Mg3    Mg35    2.978   .     S
Mg3    Mg43    2.978   .     S
Mg3    Mg97    2.978   1_545 S
Mg3    Mg99    2.978   1_545 S
Mg3    Mg100   2.978   1_545 S
Mg3    Mg108   2.978   1_545 S
Mg3    Mg123   2.978   1_445 S
Mg4    O39     2.106   .     S
Mg4    O29     2.106   1_455 S
Mg4    O63     2.106   1_455 S
Mg4    O5      2.106   .     S
Mg4    O32     2.106   1_455 S
Mg4    O37     2.106   .     S
Mg4    Mg12    2.978   .     S
Mg4    Mg26    2.978   1_455 S
Mg4    Mg27    2.978   1_455 S
Mg4    Mg28    2.978   1_455 S
Mg4    Mg34    2.978   .     S
Mg4    Mg35    2.978   .     S
Mg4    Mg36    2.978   .     S
Mg4    Mg44    2.978   .     S
Mg4    Mg59    2.978   1_455 S
Mg4    Mg100   2.978   1_545 S
Mg4    Mg124   2.978   1_445 S
O5     Mg100   2.106   1_545 S
O5     Mg35    2.106   .     S
O5     Mg27    2.106   1_455 S
O5     Mg12    2.106   .     S
O6     Mg9     2.106   .     S
O6     Mg97    2.106   1_545 S
O7     Mg25    2.106   1_455 S
O7     Mg35    2.106   .     S
O7     Mg59    2.106   1_455 S
O7     Mg33    2.106   .     S
O7     Mg27    2.106   1_455 S
O8     Mg100   2.106   1_545 S
O8     Mg10    2.106   .     S
O8     Mg108   2.106   1_545 S
O8     Mg12    2.106   .     S
O8     Mg98    2.106   1_545 S
Mg9    O23     2.106   .     S
Mg9    O15     2.106   .     S
Mg9    O14     2.106   .     S
Mg9    O110    2.106   1_545 S
Mg9    Mg11    2.978   .     S
Mg9    Mg17    2.978   .     S
Mg9    Mg41    2.978   .     S
Mg9    Mg43    2.978   .     S
Mg9    Mg49    2.978   .     S
Mg9    Mg97    2.978   1_545 S
Mg9    Mg105   2.978   1_545 S
Mg10   O16     2.106   .     S
Mg10   O112    2.106   1_545 S
Mg10   O47     2.106   .     S
Mg10   Mg12    2.978   .     S
Mg10   Mg18    2.978   .     S
Mg10   Mg20    2.978   .     S
Mg10   Mg42    2.978   .     S
Mg10   Mg50    2.978   .     S
Mg10   Mg98    2.978   1_545 S
Mg10   Mg106   2.978   1_545 S
Mg10   Mg108   2.978   1_545 S
Mg11   O21     2.106   .     S
Mg11   O110    2.106   1_545 S
Mg11   O13     2.106   .     S
Mg11   O118    2.106   1_545 S
Mg11   O109    2.106   1_545 S
Mg11   O23     2.106   .     S
Mg11   Mg17    2.978   .     S
Mg11   Mg19    2.978   .     S
Mg11   Mg20    2.978   .     S
Mg11   Mg43    2.978   .     S
Mg11   Mg51    2.978   .     S
Mg11   Mg99    2.978   1_545 S
Mg11   Mg105   2.978   1_545 S
Mg11   Mg107   2.978   1_545 S
Mg11   Mg108   2.978   1_545 S
Mg11   Mg116   2.978   1_545 S
Mg12   O47     2.106   .     S
Mg12   O39     2.106   .     S
Mg12   O13     2.106   .     S
Mg12   O45     2.106   .     S
Mg12   Mg20    2.978   .     S
Mg12   Mg35    2.978   .     S
Mg12   Mg42    2.978   .     S
Mg12   Mg43    2.978   .     S
Mg12   Mg44    2.978   .     S
Mg12   Mg52    2.978   .     S
Mg12   Mg100   2.978   1_545 S
Mg12   Mg108   2.978   1_545 S
O13    Mg108   2.106   1_545 S
O13    Mg43    2.106   .     S
O13    Mg20    2.106   .     S
O14    Mg17    2.106   .     S
O14    Mg105   2.106   1_545 S
O15    Mg43    2.106   .     S
O15    Mg35    2.106   .     S
O15    Mg41    2.106   .     S
O16    Mg108   2.106   1_545 S
O16    Mg18    2.106   .     S
O16    Mg116   2.106   1_545 S
O16    Mg20    2.106   .     S
O16    Mg106   2.106   1_545 S
Mg17   O31     2.106   .     S
Mg17   O23     2.106   .     S
Mg17   O22     2.106   .     S
Mg17   O118    2.106   1_545 S
Mg17   Mg19    2.978   .     S
Mg17   Mg25    2.978   .     S
Mg17   Mg49    2.978   .     S
Mg17   Mg51    2.978   .     S
Mg17   Mg57    2.978   .     S
Mg17   Mg105   2.978   1_545 S
Mg17   Mg113   2.978   1_545 S
Mg18   O24     2.106   .     S
Mg18   O120    2.106   1_545 S
Mg18   O55     2.106   .     S
Mg18   Mg20    2.978   .     S
Mg18   Mg26    2.978   .     S
Mg18   Mg28    2.978   .     S
Mg18   Mg50    2.978   .     S
Mg18   Mg58    2.978   .     S
Mg18   Mg106   2.978   1_545 S
Mg18   Mg114   2.978   1_545 S
Mg18   Mg116   2.978   1_545 S
Mg19   O29     2.106   .     S
Mg19   O118    2.106   1_545 S
Mg19   O21     2.106   .     S
Mg19   O126    2.106   1_545 S
Mg19   O117    2.106   1_545 S
Mg19   O31     2.106   .     S
Mg19   Mg25    2.978   .     S
Mg19   Mg27    2.978   .     S
Mg19   Mg28    2.978   .     S
Mg19   Mg51    2.978   .     S
Mg19   Mg59    2.978   .     S
Mg19   Mg107   2.978   1_545 S
Mg19   Mg113   2.978   1_545 S
Mg19   Mg115   2.978   1_545 S
Mg19   Mg116   2.978   1_545 S
Mg19   Mg124   2.978   1_545 S
Mg20   O55     2.106   .     S
Mg20   O47     2.106   .     S
Mg20   O21     2.106   .     S
Mg20   O53     2.106   .     S
Mg20   Mg28    2.978   .     S
Mg20   Mg43    2.978   .     S
Mg20   Mg50    2.978   .     S
Mg20   Mg51    2.978   .     S
Mg20   Mg52    2.978   .     S
Mg20   Mg60    2.978   .     S
Mg20   Mg108   2.978   1_545 S
Mg20   Mg116   2.978   1_545 S
O21    Mg116   2.106   1_545 S
O21    Mg51    2.106   .     S
O21    Mg28    2.106   .     S
O22    Mg25    2.106   .     S
O22    Mg113   2.106   1_545 S
O23    Mg51    2.106   .     S
O23    Mg43    2.106   .     S
O23    Mg49    2.106   .     S
O24    Mg116   2.106   1_545 S
O24    Mg26    2.106   .     S
O24    Mg124   2.106   1_545 S
O24    Mg28    2.106   .     S
O24    Mg114   2.106   1_545 S
Mg25   O7      2.106   1_655 S
Mg25   O31     2.106   .     S
Mg25   O30     2.106   .     S
Mg25   O126    2.106   1_545 S
Mg25   Mg1     2.978   1_655 S
Mg25   Mg27    2.978   .     S
Mg25   Mg33    2.978   1_655 S
Mg25   Mg57    2.978   .     S
Mg25   Mg59    2.978   .     S
Mg25   Mg113   2.978   1_545 S
Mg25   Mg121   2.978   1_545 S
Mg26   O32     2.106   .     S
Mg26   O128    2.106   1_545 S
Mg26   O63     2.106   .     S
Mg26   Mg2     2.978   1_655 S
Mg26   Mg4     2.978   1_655 S
Mg26   Mg28    2.978   .     S
Mg26   Mg34    2.978   1_655 S
Mg26   Mg58    2.978   .     S
Mg26   Mg114   2.978   1_545 S
Mg26   Mg122   2.978   1_545 S
Mg26   Mg124   2.978   1_545 S
Mg27   O5      2.106   1_655 S
Mg27   O126    2.106   1_545 S
Mg27   O29     2.106   .     S
Mg27   O102    2.106   1_645 S
Mg27   O125    2.106   1_545 S
Mg27   O7      2.106   1_655 S
Mg27   Mg3     2.978   1_655 S
Mg27   Mg1     2.978   1_655 S
Mg27   Mg4     2.978   1_655 S
Mg27   Mg35    2.978   1_655 S
Mg27   Mg59    2.978   .     S
Mg27   Mg100   2.978   1_645 S
Mg27   Mg115   2.978   1_545 S
Mg27   Mg121   2.978   1_545 S
Mg27   Mg123   2.978   1_545 S
Mg27   Mg124   2.978   1_545 S
Mg28   O63     2.106   .     S
Mg28   O55     2.106   .     S
Mg28   O29     2.106   .     S
Mg28   O61     2.106   .     S
Mg28   Mg4     2.978   1_655 S
Mg28   Mg36    2.978   1_655 S
Mg28   Mg51    2.978   .     S
Mg28   Mg58    2.978   .     S
Mg28   Mg59    2.978   .     S
Mg28   Mg60    2.978   .     S
Mg28   Mg116   2.978   1_545 S
Mg28   Mg124   2.978   1_545 S
O29    Mg124   2.106   1_545 S
O29    Mg59    2.106   .     S
O29    Mg4     2.106   1_655 S
O30    Mg1     2.106   1_655 S
O30    Mg121   2.106   1_545 S
O31    Mg59    2.106   .     S
O31    Mg51    2.106   .     S
O31    Mg57    2.106   .     S
O32    Mg124   2.106   1_545 S
O32    Mg2     2.106   1_655 S
O32    Mg100   2.106   1_645 S
O32    Mg4     2.106   1_655 S
O32    Mg122   2.106   1_545 S
Mg33   O46     2.106   .     S
Mg33   O38     2.106   .     S
Mg33   O70     2.106   .     S
Mg33   Mg25    2.978   1_455 S
Mg33   Mg35    2.978   .     S
Mg33   Mg41    2.978   .     S
Mg33   Mg57    2.978   1_455 S
Mg33   Mg59    2.978   1_455 S
Mg33   Mg65    2.978   .     S
Mg33   Mg67    2.978   .     S
Mg33   Mg73    2.978   .     S
Mg34   O48     2.106   .     S
Mg34   O63     2.106   1_455 S
Mg34   O40     2.106   .     S
Mg34   O39     2.106   .     S
Mg34   O72     2.106   .     S
Mg34   Mg26    2.978   1_455 S
Mg34   Mg36    2.978   .     S
Mg34   Mg42    2.978   .     S
Mg34   Mg44    2.978   .     S
Mg34   Mg58    2.978   1_455 S
Mg34   Mg66    2.978   .     S
Mg34   Mg74    2.978   .     S
Mg35   O45     2.106   .     S
Mg35   O37     2.106   .     S
Mg35   O46     2.106   .     S
Mg35   Mg27    2.978   1_455 S
Mg35   Mg41    2.978   .     S
Mg35   Mg43    2.978   .     S
Mg35   Mg44    2.978   .     S
Mg35   Mg59    2.978   1_455 S
Mg35   Mg67    2.978   .     S
Mg35   Mg75    2.978   .     S
Mg36   O72     2.106   .     S
Mg36   O61     2.106   1_455 S
Mg36   O96     2.106   1_455 S
Mg36   O37     2.106   .     S
Mg36   O63     2.106   1_455 S
Mg36   O69     2.106   .     S
Mg36   Mg28    2.978   1_455 S
Mg36   Mg44    2.978   .     S
Mg36   Mg58    2.978   1_455 S
Mg36   Mg59    2.978   1_455 S
Mg36   Mg60    2.978   1_455 S
Mg36   Mg66    2.978   .     S
Mg36   Mg67    2.978   .     S
Mg36   Mg68    2.978   .     S
Mg36   Mg76    2.978   .     S
Mg36   Mg91    2.978   1_455 S
O37    Mg67    2.106   .     S
O37    Mg59    2.106   1_455 S
O37    Mg44    2.106   .     S
O38    Mg57    2.106   1_455 S
O38    Mg67    2.106   .     S
O38    Mg91    2.106   1_455 S
O38    Mg65    2.106   .     S
O38    Mg59    2.106   1_455 S
O39    Mg42    2.106   .     S
O39    Mg44    2.106   .     S
O40    Mg58    2.106   1_455 S
O40    Mg66    2.106   .     S
Mg41   O54     2.106   .     S
Mg41   O46     2.106   .     S
Mg41   O78     2.106   .     S
Mg41   Mg43    2.978   .     S
Mg41   Mg49    2.978   .     S
Mg41   Mg73    2.978   .     S
Mg41   Mg75    2.978   .     S
Mg41   Mg81    2.978   .     S
Mg42   O56     2.106   .     S
Mg42   O48     2.106   .     S
Mg42   O47     2.106   .     S
Mg42   O80     2.106   .     S
Mg42   Mg44    2.978   .     S
Mg42   Mg50    2.978   .     S
Mg42   Mg52    2.978   .     S
Mg42   Mg74    2.978   .     S
Mg42   Mg82    2.978   .     S
Mg43   O53     2.106   .     S
Mg43   O45     2.106   .     S
Mg43   O54     2.106   .     S
Mg43   Mg49    2.978   .     S
Mg43   Mg51    2.978   .     S
Mg43   Mg52    2.978   .     S
Mg43   Mg75    2.978   .     S
Mg43   Mg83    2.978   .     S
Mg44   O80     2.106   .     S
Mg44   O72     2.106   .     S
Mg44   O45     2.106   .     S
Mg44   O77     2.106   .     S
Mg44   Mg52    2.978   .     S
Mg44   Mg67    2.978   .     S
Mg44   Mg74    2.978   .     S
Mg44   Mg75    2.978   .     S
Mg44   Mg76    2.978   .     S
Mg44   Mg84    2.978   .     S
O45    Mg75    2.106   .     S
O45    Mg52    2.106   .     S
O46    Mg75    2.106   .     S
O46    Mg67    2.106   .     S
O46    Mg73    2.106   .     S
O47    Mg50    2.106   .     S
O47    Mg52    2.106   .     S
O48    Mg74    2.106   .     S
Mg49   O62     2.106   .     S
Mg49   O54     2.106   .     S
Mg49   O86     2.106   .     S
Mg49   Mg51    2.978   .     S
Mg49   Mg57    2.978   .     S
Mg49   Mg81    2.978   .     S
Mg49   Mg83    2.978   .     S
Mg49   Mg89    2.978   .     S
Mg50   O56     2.106   .     S
Mg50   O55     2.106   .     S
Mg50   O88     2.106   .     S
Mg50   O64     2.155   .     S
Mg50   Mg52    2.978   .     S
Mg50   Mg58    2.978   .     S
Mg50   Mg60    2.978   .     S
Mg50   Mg82    2.978   .     S
Mg50   Mg90    2.978   .     S
Mg51   O61     2.106   .     S
Mg51   O53     2.106   .     S
Mg51   O62     2.106   .     S
Mg51   Mg57    2.978   .     S
Mg51   Mg59    2.978   .     S
Mg51   Mg60    2.978   .     S
Mg51   Mg83    2.978   .     S
Mg51   Mg91    2.978   .     S
Mg52   O88     2.106   .     S
Mg52   O80     2.106   .     S
Mg52   O53     2.106   .     S
Mg52   O85     2.106   .     S
Mg52   Mg60    2.978   .     S
Mg52   Mg75    2.978   .     S
Mg52   Mg82    2.978   .     S
Mg52   Mg83    2.978   .     S
Mg52   Mg84    2.978   .     S
Mg52   Mg92    2.978   .     S
O53    Mg83    2.106   .     S
O53    Mg60    2.106   .     S
O54    Mg83    2.106   .     S
O54    Mg75    2.106   .     S
O54    Mg81    2.106   .     S
O55    Mg58    2.106   .     S
O55    Mg60    2.106   .     S
O56    Mg82    2.106   .     S
Mg57   O38     2.106   1_655 S
Mg57   O62     2.106   .     S
Mg57   O94     2.106   .     S
Mg57   Mg33    2.978   1_655 S
Mg57   Mg59    2.978   .     S
Mg57   Mg65    2.978   1_655 S
Mg57   Mg89    2.978   .     S
Mg57   Mg91    2.978   .     S
Mg58   O40     2.106   1_655 S
Mg58   O63     2.106   .     S
Mg58   O96     2.106   .     S
Mg58   O64     2.155   .     S
Mg58   Mg34    2.978   1_655 S
Mg58   Mg36    2.978   1_655 S
Mg58   Mg60    2.978   .     S
Mg58   Mg66    2.978   1_655 S
Mg58   Mg90    2.978   .     S
Mg59   O37     2.106   1_655 S
Mg59   O61     2.106   .     S
Mg59   O7      2.106   1_655 S
Mg59   O38     2.106   1_655 S
Mg59   Mg35    2.978   1_655 S
Mg59   Mg33    2.978   1_655 S
Mg59   Mg36    2.978   1_655 S
Mg59   Mg4     2.978   1_655 S
Mg59   Mg67    2.978   1_655 S
Mg59   Mg91    2.978   .     S
Mg60   O96     2.106   .     S
Mg60   O88     2.106   .     S
Mg60   O61     2.106   .     S
Mg60   O93     2.106   .     S
Mg60   Mg36    2.978   1_655 S
Mg60   Mg68    2.978   1_655 S
Mg60   Mg83    2.978   .     S
Mg60   Mg90    2.978   .     S
Mg60   Mg91    2.978   .     S
Mg60   Mg92    2.978   .     S
O61    Mg91    2.106   .     S
O61    Mg36    2.106   1_655 S
O62    Mg91    2.106   .     S
O62    Mg83    2.106   .     S
O62    Mg89    2.106   .     S
O63    Mg34    2.106   1_655 S
O63    Mg4     2.106   1_655 S
O63    Mg36    2.106   1_655 S
O64    Mg90    2.107   .     S
Mg65   O79     2.106   .     S
Mg65   O94     2.106   1_455 S
Mg65   O71     2.106   .     S
Mg65   O70     2.106   .     S
Mg65   Mg57    2.978   1_455 S
Mg65   Mg67    2.978   .     S
Mg65   Mg73    2.978   .     S
Mg65   Mg89    2.978   1_455 S
Mg65   Mg91    2.978   1_455 S
Mg65   Mg97    2.978   .     S
Mg65   Mg99    2.978   .     S
Mg65   Mg105   2.978   .     S
Mg66   O96     2.106   1_455 S
Mg66   O72     2.106   .     S
Mg66   O103    2.106   .     S
Mg66   Mg58    2.978   1_455 S
Mg66   Mg68    2.978   .     S
Mg66   Mg74    2.978   .     S
Mg66   Mg76    2.978   .     S
Mg66   Mg90    2.978   1_455 S
Mg66   Mg98    2.978   .     S
Mg66   Mg106   2.978   .     S
Mg67   O77     2.106   .     S
Mg67   O69     2.106   .     S
Mg67   O79     2.106   .     S
Mg67   Mg59    2.978   1_455 S
Mg67   Mg73    2.978   .     S
Mg67   Mg75    2.978   .     S
Mg67   Mg76    2.978   .     S
Mg67   Mg91    2.978   1_455 S
Mg67   Mg99    2.978   .     S
Mg67   Mg107   2.978   .     S
Mg68   O103    2.106   .     S
Mg68   O93     2.106   1_455 S
Mg68   O127    2.106   1_455 S
Mg68   O69     2.106   .     S
Mg68   O96     2.106   1_455 S
Mg68   O101    2.106   .     S
Mg68   Mg60    2.978   1_455 S
Mg68   Mg76    2.978   .     S
Mg68   Mg90    2.978   1_455 S
Mg68   Mg91    2.978   1_455 S
Mg68   Mg92    2.978   1_455 S
Mg68   Mg98    2.978   .     S
Mg68   Mg99    2.978   .     S
Mg68   Mg100   2.978   .     S
Mg68   Mg108   2.978   .     S
Mg68   Mg123   2.978   1_455 S
O69    Mg99    2.106   .     S
O69    Mg91    2.106   1_455 S
O69    Mg76    2.106   .     S
O70    Mg73    2.106   .     S
O71    Mg89    2.106   1_455 S
O71    Mg99    2.106   .     S
O71    Mg123   2.106   1_455 S
O71    Mg97    2.106   .     S
O71    Mg91    2.106   1_455 S
O72    Mg74    2.106   .     S
O72    Mg76    2.106   .     S
Mg73   O87     2.106   .     S
Mg73   O79     2.106   .     S
Mg73   O78     2.106   .     S
Mg73   Mg75    2.978   .     S
Mg73   Mg81    2.978   .     S
Mg73   Mg105   2.978   .     S
Mg73   Mg107   2.978   .     S
Mg73   Mg113   2.978   .     S
Mg74   O80     2.106   .     S
Mg74   O111    2.106   .     S
Mg74   Mg76    2.978   .     S
Mg74   Mg82    2.978   .     S
Mg74   Mg84    2.978   .     S
Mg74   Mg106   2.978   .     S
Mg74   Mg114   2.978   .     S
Mg75   O85     2.106   .     S
Mg75   O77     2.106   .     S
Mg75   O87     2.106   .     S
Mg75   Mg81    2.978   .     S
Mg75   Mg83    2.978   .     S
Mg75   Mg84    2.978   .     S
Mg75   Mg107   2.978   .     S
Mg75   Mg115   2.978   .     S
Mg76   O111    2.106   .     S
Mg76   O103    2.106   .     S
Mg76   O77     2.106   .     S
Mg76   O109    2.106   .     S
Mg76   Mg84    2.978   .     S
Mg76   Mg99    2.978   .     S
Mg76   Mg106   2.978   .     S
Mg76   Mg107   2.978   .     S
Mg76   Mg108   2.978   .     S
Mg76   Mg116   2.978   .     S
O77    Mg107   2.106   .     S
O77    Mg84    2.106   .     S
O78    Mg81    2.106   .     S
O79    Mg107   2.106   .     S
O79    Mg99    2.106   .     S
O79    Mg105   2.106   .     S
O80    Mg82    2.106   .     S
O80    Mg84    2.106   .     S
Mg81   O95     2.106   .     S
Mg81   O87     2.106   .     S
Mg81   O86     2.106   .     S
Mg81   Mg83    2.978   .     S
Mg81   Mg89    2.978   .     S
Mg81   Mg113   2.978   .     S
Mg81   Mg115   2.978   .     S
Mg81   Mg121   2.978   .     S
Mg82   O88     2.106   .     S
Mg82   O119    2.106   .     S
Mg82   Mg84    2.978   .     S
Mg82   Mg90    2.978   .     S
Mg82   Mg92    2.978   .     S
Mg82   Mg114   2.978   .     S
Mg82   Mg122   2.978   .     S
Mg83   O93     2.106   .     S
Mg83   O85     2.106   .     S
Mg83   O95     2.106   .     S
Mg83   Mg89    2.978   .     S
Mg83   Mg91    2.978   .     S
Mg83   Mg92    2.978   .     S
Mg83   Mg115   2.978   .     S
Mg83   Mg123   2.978   .     S
Mg84   O119    2.106   .     S
Mg84   O111    2.106   .     S
Mg84   O85     2.106   .     S
Mg84   O117    2.106   .     S
Mg84   Mg92    2.978   .     S
Mg84   Mg107   2.978   .     S
Mg84   Mg114   2.978   .     S
Mg84   Mg115   2.978   .     S
Mg84   Mg116   2.978   .     S
Mg84   Mg124   2.978   .     S
O85    Mg115   2.106   .     S
O85    Mg92    2.106   .     S
O86    Mg89    2.106   .     S
O87    Mg115   2.106   .     S
O87    Mg107   2.106   .     S
O87    Mg113   2.106   .     S
O88    Mg90    2.106   .     S
O88    Mg92    2.106   .     S
Mg89   O71     2.106   1_655 S
Mg89   O95     2.106   .     S
Mg89   O94     2.106   .     S
Mg89   Mg65    2.978   1_655 S
Mg89   Mg91    2.978   .     S
Mg89   Mg97    2.978   1_655 S
Mg89   Mg121   2.978   .     S
Mg89   Mg123   2.978   .     S
Mg90   O96     2.106   .     S
Mg90   O127    2.106   .     S
Mg90   Mg66    2.978   1_655 S
Mg90   Mg68    2.978   1_655 S
Mg90   Mg92    2.978   .     S
Mg90   Mg98    2.978   1_655 S
Mg90   Mg122   2.978   .     S
Mg91   O69     2.106   1_655 S
Mg91   O93     2.106   .     S
Mg91   O38     2.106   1_655 S
Mg91   O71     2.106   1_655 S
Mg91   Mg67    2.978   1_655 S
Mg91   Mg65    2.978   1_655 S
Mg91   Mg68    2.978   1_655 S
Mg91   Mg36    2.978   1_655 S
Mg91   Mg99    2.978   1_655 S
Mg91   Mg123   2.978   .     S
Mg92   O127    2.106   .     S
Mg92   O119    2.106   .     S
Mg92   O93     2.106   .     S
Mg92   O125    2.106   .     S
Mg92   Mg68    2.978   1_655 S
Mg92   Mg100   2.978   1_655 S
Mg92   Mg115   2.978   .     S
Mg92   Mg122   2.978   .     S
Mg92   Mg123   2.978   .     S
Mg92   Mg124   2.978   .     S
O93    Mg123   2.106   .     S
O93    Mg68    2.106   1_655 S
O94    Mg65    2.106   1_655 S
O95    Mg123   2.106   .     S
O95    Mg115   2.106   .     S
O95    Mg121   2.106   .     S
O96    Mg66    2.106   1_655 S
O96    Mg36    2.106   1_655 S
O96    Mg68    2.106   1_655 S
Mg97   O110    2.106   .     S
Mg97   O102    2.106   .     S
Mg97   O6      2.106   1_565 S
Mg97   Mg9     2.978   1_565 S
Mg97   Mg1     2.978   1_565 S
Mg97   Mg89    2.978   1_455 S
Mg97   Mg3     2.978   1_565 S
Mg97   Mg99    2.978   .     S
Mg97   Mg105   2.978   .     S
Mg97   Mg121   2.978   1_455 S
Mg97   Mg123   2.978   1_455 S
Mg98   O112    2.106   .     S
Mg98   O127    2.106   1_455 S
Mg98   O104    2.106   .     S
Mg98   O103    2.106   .     S
Mg98   O8      2.106   1_565 S
Mg98   Mg10    2.978   1_565 S
Mg98   Mg2     2.978   1_565 S
Mg98   Mg90    2.978   1_455 S
Mg98   Mg100   2.978   .     S
Mg98   Mg106   2.978   .     S
Mg98   Mg108   2.978   .     S
Mg98   Mg122   2.978   1_455 S
Mg99   O109    2.106   .     S
Mg99   O101    2.106   .     S
Mg99   O110    2.106   .     S
Mg99   Mg3     2.978   1_565 S
Mg99   Mg11    2.978   1_565 S
Mg99   Mg91    2.978   1_455 S
Mg99   Mg105   2.978   .     S
Mg99   Mg107   2.978   .     S
Mg99   Mg108   2.978   .     S
Mg99   Mg123   2.978   1_455 S
Mg100  O8      2.106   1_565 S
Mg100  O125    2.106   1_455 S
Mg100  O32     2.106   1_465 S
Mg100  O101    2.106   .     S
Mg100  O127    2.106   1_455 S
Mg100  O5      2.106   1_565 S
Mg100  Mg4     2.978   1_565 S
Mg100  Mg12    2.978   1_565 S
Mg100  Mg92    2.978   1_455 S
Mg100  Mg27    2.978   1_465 S
Mg100  Mg3     2.978   1_565 S
Mg100  Mg2     2.978   1_565 S
Mg100  Mg108   2.978   .     S
Mg100  Mg122   2.978   1_455 S
Mg100  Mg123   2.978   1_455 S
Mg100  Mg124   2.978   1_455 S
O101   Mg3     2.106   1_565 S
O101   Mg123   2.106   1_455 S
O101   Mg108   2.106   .     S
O102   Mg121   2.106   1_455 S
O102   Mg3     2.106   1_565 S
O102   Mg27    2.106   1_465 S
O102   Mg1     2.106   1_565 S
O102   Mg123   2.106   1_455 S
O103   Mg106   2.106   .     S
O103   Mg108   2.106   .     S
O104   Mg122   2.106   1_455 S
O104   Mg2     2.106   1_565 S
Mg105  O118    2.106   .     S
Mg105  O110    2.106   .     S
Mg105  O14     2.106   1_565 S
Mg105  Mg17    2.978   1_565 S
Mg105  Mg9     2.978   1_565 S
Mg105  Mg11    2.978   1_565 S
Mg105  Mg107   2.978   .     S
Mg105  Mg113   2.978   .     S
Mg106  O120    2.106   .     S
Mg106  O112    2.106   .     S
Mg106  O111    2.106   .     S
Mg106  O16     2.106   1_565 S
Mg106  Mg18    2.978   1_565 S
Mg106  Mg10    2.978   1_565 S
Mg106  Mg108   2.978   .     S
Mg106  Mg114   2.978   .     S
Mg106  Mg116   2.978   .     S
Mg107  O117    2.106   .     S
Mg107  O109    2.106   .     S
Mg107  O118    2.106   .     S
Mg107  Mg11    2.978   1_565 S
Mg107  Mg19    2.978   1_565 S
Mg107  Mg113   2.978   .     S
Mg107  Mg115   2.978   .     S
Mg107  Mg116   2.978   .     S
Mg108  O16     2.106   1_565 S
Mg108  O8      2.106   1_565 S
Mg108  O109    2.106   .     S
Mg108  O13     2.106   1_565 S
Mg108  Mg12    2.978   1_565 S
Mg108  Mg20    2.978   1_565 S
Mg108  Mg3     2.978   1_565 S
Mg108  Mg11    2.978   1_565 S
Mg108  Mg10    2.978   1_565 S
Mg108  Mg116   2.978   .     S
O109   Mg11    2.106   1_565 S
O109   Mg116   2.106   .     S
O110   Mg11    2.106   1_565 S
O110   Mg3     2.106   1_565 S
O110   Mg9     2.106   1_565 S
O111   Mg114   2.106   .     S
O111   Mg116   2.106   .     S
O112   Mg10    2.106   1_565 S
Mg113  O126    2.106   .     S
Mg113  O118    2.106   .     S
Mg113  O22     2.106   1_565 S
Mg113  Mg25    2.978   1_565 S
Mg113  Mg17    2.978   1_565 S
Mg113  Mg19    2.978   1_565 S
Mg113  Mg115   2.978   .     S
Mg113  Mg121   2.978   .     S
Mg114  O128    2.106   .     S
Mg114  O120    2.106   .     S
Mg114  O119    2.106   .     S
Mg114  O24     2.106   1_565 S
Mg114  Mg26    2.978   1_565 S
Mg114  Mg18    2.978   1_565 S
Mg114  Mg116   2.978   .     S
Mg114  Mg122   2.978   .     S
Mg114  Mg124   2.978   .     S
Mg115  O125    2.106   .     S
Mg115  O117    2.106   .     S
Mg115  O126    2.106   .     S
Mg115  Mg19    2.978   1_565 S
Mg115  Mg27    2.978   1_565 S
Mg115  Mg121   2.978   .     S
Mg115  Mg123   2.978   .     S
Mg115  Mg124   2.978   .     S
Mg116  O24     2.106   1_565 S
Mg116  O16     2.106   1_565 S
Mg116  O117    2.106   .     S
Mg116  O21     2.106   1_565 S
Mg116  Mg20    2.978   1_565 S
Mg116  Mg28    2.978   1_565 S
Mg116  Mg11    2.978   1_565 S
Mg116  Mg19    2.978   1_565 S
Mg116  Mg18    2.978   1_565 S
Mg116  Mg124   2.978   .     S
O117   Mg19    2.106   1_565 S
O117   Mg124   2.106   .     S
O118   Mg19    2.106   1_565 S
O118   Mg11    2.106   1_565 S
O118   Mg17    2.106   1_565 S
O119   Mg122   2.106   .     S
O119   Mg124   2.106   .     S
O120   Mg18    2.106   1_565 S
Mg121  O102    2.106   1_655 S
Mg121  O126    2.106   .     S
Mg121  O30     2.106   1_565 S
Mg121  Mg1     2.978   1_665 S
Mg121  Mg25    2.978   1_565 S
Mg121  Mg97    2.978   1_655 S
Mg121  Mg27    2.978   1_565 S
Mg121  Mg123   2.978   .     S
Mg122  O104    2.106   1_655 S
Mg122  O128    2.106   .     S
Mg122  O127    2.106   .     S
Mg122  O32     2.106   1_565 S
Mg122  Mg2     2.978   1_665 S
Mg122  Mg26    2.978   1_565 S
Mg122  Mg98    2.978   1_655 S
Mg122  Mg100   2.978   1_655 S
Mg122  Mg124   2.978   .     S
Mg123  O101    2.106   1_655 S
Mg123  O125    2.106   .     S
Mg123  O71     2.106   1_655 S
Mg123  O102    2.106   1_655 S
Mg123  Mg99    2.978   1_655 S
Mg123  Mg27    2.978   1_565 S
Mg123  Mg3     2.978   1_665 S
Mg123  Mg97    2.978   1_655 S
Mg123  Mg100   2.978   1_655 S
Mg123  Mg68    2.978   1_655 S
Mg124  O32     2.106   1_565 S
Mg124  O24     2.106   1_565 S
Mg124  O125    2.106   .     S
Mg124  O29     2.106   1_565 S
Mg124  Mg100   2.978   1_655 S
Mg124  Mg28    2.978   1_565 S
Mg124  Mg4     2.978   1_665 S
Mg124  Mg19    2.978   1_565 S
Mg124  Mg27    2.978   1_565 S
Mg124  Mg26    2.978   1_565 S
O125   Mg27    2.106   1_565 S
O125   Mg100   2.106   1_655 S
O126   Mg27    2.106   1_565 S
O126   Mg19    2.106   1_565 S
O126   Mg25    2.106   1_565 S
O127   Mg98    2.106   1_655 S
O127   Mg68    2.106   1_655 S
O127   Mg100   2.106   1_655 S
O128   Mg26    2.106   1_565 S
